* NGSPICE file created from pm32.ext - technology: sky130A

* Black-box entry subcircuit for sky130_ef_sc_hd__decap_12 abstract view
.subckt sky130_ef_sc_hd__decap_12 VPWR VGND VPB VNB
.ends

* Black-box entry subcircuit for sky130_fd_sc_hd__tapvpwrvgnd_1 abstract view
.subckt sky130_fd_sc_hd__tapvpwrvgnd_1 VGND VPWR
.ends

* Black-box entry subcircuit for sky130_fd_sc_hd__fill_2 abstract view
.subckt sky130_fd_sc_hd__fill_2 VGND VNB VPB VPWR
.ends

* Black-box entry subcircuit for sky130_fd_sc_hd__decap_4 abstract view
.subckt sky130_fd_sc_hd__decap_4 VGND VNB VPB VPWR
.ends

* Black-box entry subcircuit for sky130_fd_sc_hd__inv_2 abstract view
.subckt sky130_fd_sc_hd__inv_2 A VGND VNB VPB VPWR Y
.ends

* Black-box entry subcircuit for sky130_fd_sc_hd__fill_1 abstract view
.subckt sky130_fd_sc_hd__fill_1 VGND VNB VPB VPWR
.ends

* Black-box entry subcircuit for sky130_fd_sc_hd__clkbuf_2 abstract view
.subckt sky130_fd_sc_hd__clkbuf_2 A VGND VNB VPB VPWR X
.ends

* Black-box entry subcircuit for sky130_fd_sc_hd__buf_2 abstract view
.subckt sky130_fd_sc_hd__buf_2 A VGND VNB VPB VPWR X
.ends

* Black-box entry subcircuit for sky130_fd_sc_hd__dlygate4sd3_1 abstract view
.subckt sky130_fd_sc_hd__dlygate4sd3_1 A VGND VNB VPB VPWR X
.ends

* Black-box entry subcircuit for sky130_fd_sc_hd__decap_3 abstract view
.subckt sky130_fd_sc_hd__decap_3 VGND VNB VPB VPWR
.ends

* Black-box entry subcircuit for sky130_fd_sc_hd__o21ai_1 abstract view
.subckt sky130_fd_sc_hd__o21ai_1 A1 A2 B1 VGND VNB VPB VPWR Y
.ends

* Black-box entry subcircuit for sky130_fd_sc_hd__clkbuf_8 abstract view
.subckt sky130_fd_sc_hd__clkbuf_8 A VGND VNB VPB VPWR X
.ends

* Black-box entry subcircuit for sky130_fd_sc_hd__a31o_1 abstract view
.subckt sky130_fd_sc_hd__a31o_1 A1 A2 A3 B1 VGND VNB VPB VPWR X
.ends

* Black-box entry subcircuit for sky130_fd_sc_hd__nand2_1 abstract view
.subckt sky130_fd_sc_hd__nand2_1 A B VGND VNB VPB VPWR Y
.ends

* Black-box entry subcircuit for sky130_fd_sc_hd__decap_8 abstract view
.subckt sky130_fd_sc_hd__decap_8 VGND VNB VPB VPWR
.ends

* Black-box entry subcircuit for sky130_fd_sc_hd__dfrtp_1 abstract view
.subckt sky130_fd_sc_hd__dfrtp_1 CLK D RESET_B VGND VNB VPB VPWR Q
.ends

* Black-box entry subcircuit for sky130_fd_sc_hd__decap_6 abstract view
.subckt sky130_fd_sc_hd__decap_6 VGND VNB VPB VPWR
.ends

* Black-box entry subcircuit for sky130_fd_sc_hd__or2_1 abstract view
.subckt sky130_fd_sc_hd__or2_1 A B VGND VNB VPB VPWR X
.ends

* Black-box entry subcircuit for sky130_fd_sc_hd__xor2_1 abstract view
.subckt sky130_fd_sc_hd__xor2_1 A B VGND VNB VPB VPWR X
.ends

* Black-box entry subcircuit for sky130_fd_sc_hd__a22o_1 abstract view
.subckt sky130_fd_sc_hd__a22o_1 A1 A2 B1 B2 VGND VNB VPB VPWR X
.ends

* Black-box entry subcircuit for sky130_fd_sc_hd__o221a_1 abstract view
.subckt sky130_fd_sc_hd__o221a_1 A1 A2 B1 B2 C1 VGND VNB VPB VPWR X
.ends

* Black-box entry subcircuit for sky130_fd_sc_hd__a21oi_1 abstract view
.subckt sky130_fd_sc_hd__a21oi_1 A1 A2 B1 VGND VNB VPB VPWR Y
.ends

* Black-box entry subcircuit for sky130_fd_sc_hd__o21a_1 abstract view
.subckt sky130_fd_sc_hd__o21a_1 A1 A2 B1 VGND VNB VPB VPWR X
.ends

* Black-box entry subcircuit for sky130_fd_sc_hd__and2_1 abstract view
.subckt sky130_fd_sc_hd__and2_1 A B VGND VNB VPB VPWR X
.ends

* Black-box entry subcircuit for sky130_fd_sc_hd__nand3_1 abstract view
.subckt sky130_fd_sc_hd__nand3_1 A B C VGND VNB VPB VPWR Y
.ends

* Black-box entry subcircuit for sky130_fd_sc_hd__clkbuf_4 abstract view
.subckt sky130_fd_sc_hd__clkbuf_4 A VGND VNB VPB VPWR X
.ends

* Black-box entry subcircuit for sky130_fd_sc_hd__clkbuf_16 abstract view
.subckt sky130_fd_sc_hd__clkbuf_16 A VGND VNB VPB VPWR X
.ends

* Black-box entry subcircuit for sky130_fd_sc_hd__nor2_1 abstract view
.subckt sky130_fd_sc_hd__nor2_1 A B VGND VNB VPB VPWR Y
.ends

* Black-box entry subcircuit for sky130_fd_sc_hd__and3_1 abstract view
.subckt sky130_fd_sc_hd__and3_1 A B C VGND VNB VPB VPWR X
.ends

* Black-box entry subcircuit for sky130_fd_sc_hd__clkbuf_1 abstract view
.subckt sky130_fd_sc_hd__clkbuf_1 A VGND VNB VPB VPWR X
.ends

* Black-box entry subcircuit for sky130_fd_sc_hd__or2_2 abstract view
.subckt sky130_fd_sc_hd__or2_2 A B VGND VNB VPB VPWR X
.ends

* Black-box entry subcircuit for sky130_fd_sc_hd__and2b_2 abstract view
.subckt sky130_fd_sc_hd__and2b_2 A_N B VGND VNB VPB VPWR X
.ends

* Black-box entry subcircuit for sky130_fd_sc_hd__and3b_1 abstract view
.subckt sky130_fd_sc_hd__and3b_1 A_N B C VGND VNB VPB VPWR X
.ends

* Black-box entry subcircuit for sky130_fd_sc_hd__dfxtp_1 abstract view
.subckt sky130_fd_sc_hd__dfxtp_1 CLK D VGND VNB VPB VPWR Q
.ends

* Black-box entry subcircuit for sky130_fd_sc_hd__a221o_1 abstract view
.subckt sky130_fd_sc_hd__a221o_1 A1 A2 B1 B2 C1 VGND VNB VPB VPWR X
.ends

* Black-box entry subcircuit for sky130_fd_sc_hd__and4_2 abstract view
.subckt sky130_fd_sc_hd__and4_2 A B C D VGND VNB VPB VPWR X
.ends

* Black-box entry subcircuit for sky130_fd_sc_hd__buf_1 abstract view
.subckt sky130_fd_sc_hd__buf_1 A VGND VNB VPB VPWR X
.ends

* Black-box entry subcircuit for sky130_fd_sc_hd__a2bb2o_1 abstract view
.subckt sky130_fd_sc_hd__a2bb2o_1 A1_N A2_N B1 B2 VGND VNB VPB VPWR X
.ends

* Black-box entry subcircuit for sky130_fd_sc_hd__buf_4 abstract view
.subckt sky130_fd_sc_hd__buf_4 A VGND VNB VPB VPWR X
.ends

* Black-box entry subcircuit for sky130_fd_sc_hd__or4_1 abstract view
.subckt sky130_fd_sc_hd__or4_1 A B C D VGND VNB VPB VPWR X
.ends

* Black-box entry subcircuit for sky130_fd_sc_hd__or4b_1 abstract view
.subckt sky130_fd_sc_hd__or4b_1 A B C D_N VGND VNB VPB VPWR X
.ends

* Black-box entry subcircuit for sky130_fd_sc_hd__and4_1 abstract view
.subckt sky130_fd_sc_hd__and4_1 A B C D VGND VNB VPB VPWR X
.ends

* Black-box entry subcircuit for sky130_fd_sc_hd__dlymetal6s2s_1 abstract view
.subckt sky130_fd_sc_hd__dlymetal6s2s_1 A VGND VNB VPB VPWR X
.ends

.subckt pm32 VGND VPWR clk done mc[0] mc[10] mc[11] mc[12] mc[13] mc[14] mc[15] mc[16]
+ mc[17] mc[18] mc[19] mc[1] mc[20] mc[21] mc[22] mc[23] mc[24] mc[25] mc[26] mc[27]
+ mc[28] mc[29] mc[2] mc[30] mc[31] mc[3] mc[4] mc[5] mc[6] mc[7] mc[8] mc[9] mp[0]
+ mp[10] mp[11] mp[12] mp[13] mp[14] mp[15] mp[16] mp[17] mp[18] mp[19] mp[1] mp[20]
+ mp[21] mp[22] mp[23] mp[24] mp[25] mp[26] mp[27] mp[28] mp[29] mp[2] mp[30] mp[31]
+ mp[3] mp[4] mp[5] mp[6] mp[7] mp[8] mp[9] p[0] p[10] p[11] p[12] p[13] p[14] p[15]
+ p[16] p[17] p[18] p[19] p[1] p[20] p[21] p[22] p[23] p[24] p[25] p[26] p[27] p[28]
+ p[29] p[2] p[30] p[31] p[32] p[33] p[34] p[35] p[36] p[37] p[38] p[39] p[3] p[40]
+ p[41] p[42] p[43] p[44] p[45] p[46] p[47] p[48] p[49] p[4] p[50] p[51] p[52] p[53]
+ p[54] p[55] p[56] p[57] p[58] p[59] p[5] p[60] p[61] p[62] p[63] p[6] p[7] p[8]
+ p[9] rst start
XFILLER_0_27_93 VPWR VGND VPWR VGND sky130_ef_sc_hd__decap_12
XTAP_TAPCELL_ROW_9_137 VGND VPWR sky130_fd_sc_hd__tapvpwrvgnd_1
XFILLER_0_32_236 VGND VGND VPWR VPWR sky130_fd_sc_hd__fill_2
XFILLER_0_13_51 VGND VGND VPWR VPWR sky130_fd_sc_hd__decap_4
XTAP_TAPCELL_ROW_14_161 VGND VPWR sky130_fd_sc_hd__tapvpwrvgnd_1
X_0985_ net177 VGND VGND VPWR VPWR _0190_ sky130_fd_sc_hd__inv_2
XFILLER_0_38_92 VGND VGND VPWR VPWR sky130_fd_sc_hd__fill_1
Xfanout149 _0308_ VGND VGND VPWR VPWR net149 sky130_fd_sc_hd__clkbuf_2
Xfanout138 net139 VGND VGND VPWR VPWR net138 sky130_fd_sc_hd__buf_2
XTAP_TAPCELL_ROW_37_264 VGND VPWR sky130_fd_sc_hd__tapvpwrvgnd_1
Xhold170 net125 VGND VGND VPWR VPWR net352 sky130_fd_sc_hd__dlygate4sd3_1
XTAP_TAPCELL_ROW_20_186 VGND VPWR sky130_fd_sc_hd__tapvpwrvgnd_1
XFILLER_0_20_217 VGND VGND VPWR VPWR sky130_fd_sc_hd__decap_3
Xhold181 net106 VGND VGND VPWR VPWR net363 sky130_fd_sc_hd__dlygate4sd3_1
Xhold192 net109 VGND VGND VPWR VPWR net374 sky130_fd_sc_hd__dlygate4sd3_1
XFILLER_0_18_18 VGND VGND VPWR VPWR sky130_fd_sc_hd__fill_1
X_0770_ _0441_ _0442_ net239 VGND VGND VPWR VPWR _0027_ sky130_fd_sc_hd__o21ai_1
X_0968_ net169 VGND VGND VPWR VPWR _0173_ sky130_fd_sc_hd__inv_2
XFILLER_0_40_60 VGND VGND VPWR VPWR sky130_fd_sc_hd__fill_1
Xclkbuf_4_12_0_clk clknet_0_clk VGND VGND VPWR VPWR clknet_4_12_0_clk sky130_fd_sc_hd__clkbuf_8
XFILLER_0_24_83 VGND VGND VPWR VPWR sky130_fd_sc_hd__fill_1
X_0899_ net163 VGND VGND VPWR VPWR _0104_ sky130_fd_sc_hd__inv_2
XFILLER_0_4_82 VGND VGND VPWR VPWR sky130_fd_sc_hd__fill_2
XTAP_TAPCELL_ROW_25_212 VGND VPWR sky130_fd_sc_hd__tapvpwrvgnd_1
XFILLER_0_37_169 VGND VGND VPWR VPWR sky130_fd_sc_hd__decap_4
XFILLER_0_45_27 VGND VGND VPWR VPWR sky130_fd_sc_hd__fill_1
X_0822_ cnt\[4\] cnt\[5\] _0471_ _0303_ VGND VGND VPWR VPWR _0474_ sky130_fd_sc_hd__a31o_1
XTAP_TAPCELL_ROW_31_237 VGND VPWR sky130_fd_sc_hd__tapvpwrvgnd_1
X_0753_ net216 spm32.genblk1\[8\].csa.y VGND VGND VPWR VPWR _0431_ sky130_fd_sc_hd__nand2_1
X_0684_ net13 net144 VGND VGND VPWR VPWR _0386_ sky130_fd_sc_hd__nand2_1
XFILLER_0_36_6 VGND VGND VPWR VPWR sky130_fd_sc_hd__decap_8
XFILLER_0_19_125 VPWR VGND VPWR VGND sky130_ef_sc_hd__decap_12
X_1098_ clknet_4_4_0_clk spm32.genblk1\[29\].csa.hsum2 _0133_ VGND VGND VPWR VPWR
+ spm32.genblk1\[28\].csa.y sky130_fd_sc_hd__dfrtp_1
XFILLER_0_34_139 VGND VGND VPWR VPWR sky130_fd_sc_hd__fill_1
XFILLER_0_19_169 VPWR VGND VPWR VGND sky130_ef_sc_hd__decap_12
XFILLER_0_42_194 VGND VGND VPWR VPWR sky130_fd_sc_hd__fill_2
XTAP_TAPCELL_ROW_45_307 VGND VPWR sky130_fd_sc_hd__tapvpwrvgnd_1
XFILLER_0_33_150 VGND VGND VPWR VPWR sky130_fd_sc_hd__decap_6
X_1021_ clknet_4_10_0_clk net223 _0056_ VGND VGND VPWR VPWR net83 sky130_fd_sc_hd__dfrtp_1
XPHY_EDGE_ROW_28_Left_74 VGND VGND VPWR VPWR sky130_fd_sc_hd__decap_3
XPHY_EDGE_ROW_12_Left_58 VGND VGND VPWR VPWR sky130_fd_sc_hd__decap_3
X_0805_ spm32.csa0.sc spm32.csa0.y VGND VGND VPWR VPWR _0465_ sky130_fd_sc_hd__or2_1
X_0667_ _0373_ _0374_ VGND VGND VPWR VPWR spm32.genblk1\[23\].csa.hsum2 sky130_fd_sc_hd__xor2_1
X_0736_ spm32.genblk1\[11\].csa.sc spm32.genblk1\[11\].csa.y VGND VGND VPWR VPWR _0420_
+ sky130_fd_sc_hd__or2_1
X_0598_ net75 net152 net134 net295 VGND VGND VPWR VPWR _0219_ sky130_fd_sc_hd__a22o_1
XFILLER_0_24_183 VPWR VGND VPWR VGND sky130_ef_sc_hd__decap_12
Xhold63 spm32.genblk1\[21\].csa.sc VGND VGND VPWR VPWR net245 sky130_fd_sc_hd__dlygate4sd3_1
Xhold30 spm32.genblk1\[10\].csa.sc VGND VGND VPWR VPWR net212 sky130_fd_sc_hd__dlygate4sd3_1
Xhold52 spm32.genblk1\[23\].csa.sc VGND VGND VPWR VPWR net234 sky130_fd_sc_hd__dlygate4sd3_1
Xhold41 _0226_ VGND VGND VPWR VPWR net223 sky130_fd_sc_hd__dlygate4sd3_1
XFILLER_0_30_175 VGND VGND VPWR VPWR sky130_fd_sc_hd__decap_4
Xhold74 spm32.genblk1\[16\].csa.sc VGND VGND VPWR VPWR net256 sky130_fd_sc_hd__dlygate4sd3_1
Xhold96 _0210_ VGND VGND VPWR VPWR net278 sky130_fd_sc_hd__dlygate4sd3_1
Xhold85 Y\[4\] VGND VGND VPWR VPWR net267 sky130_fd_sc_hd__dlygate4sd3_1
XFILLER_0_13_109 VGND VGND VPWR VPWR sky130_fd_sc_hd__decap_3
X_0521_ Y\[15\] net149 VGND VGND VPWR VPWR _0324_ sky130_fd_sc_hd__or2_1
XFILLER_0_20_9 VGND VGND VPWR VPWR sky130_fd_sc_hd__decap_4
X_1004_ clknet_4_9_0_clk net332 _0039_ VGND VGND VPWR VPWR net128 sky130_fd_sc_hd__dfrtp_1
XFILLER_0_12_153 VGND VGND VPWR VPWR sky130_fd_sc_hd__fill_2
X_0719_ _0407_ _0408_ VGND VGND VPWR VPWR _0409_ sky130_fd_sc_hd__nand2_1
Xoutput75 net75 VGND VGND VPWR VPWR p[16] sky130_fd_sc_hd__buf_2
Xoutput86 net86 VGND VGND VPWR VPWR p[26] sky130_fd_sc_hd__buf_2
Xoutput97 net97 VGND VGND VPWR VPWR p[36] sky130_fd_sc_hd__buf_2
X_0504_ net160 net48 net141 net298 _0315_ VGND VGND VPWR VPWR _0290_ sky130_fd_sc_hd__o221a_1
XFILLER_0_17_223 VGND VGND VPWR VPWR sky130_fd_sc_hd__fill_1
XFILLER_0_7_60 VGND VGND VPWR VPWR sky130_fd_sc_hd__decap_6
XTAP_TAPCELL_ROW_9_138 VGND VPWR sky130_fd_sc_hd__tapvpwrvgnd_1
XPHY_EDGE_ROW_15_Left_61 VGND VGND VPWR VPWR sky130_fd_sc_hd__decap_3
XFILLER_0_3_29 VGND VGND VPWR VPWR sky130_fd_sc_hd__fill_1
X_0984_ net176 VGND VGND VPWR VPWR _0189_ sky130_fd_sc_hd__inv_2
XTAP_TAPCELL_ROW_14_162 VGND VPWR sky130_fd_sc_hd__tapvpwrvgnd_1
Xfanout139 _0307_ VGND VGND VPWR VPWR net139 sky130_fd_sc_hd__buf_2
XTAP_TAPCELL_ROW_37_265 VGND VPWR sky130_fd_sc_hd__tapvpwrvgnd_1
XTAP_TAPCELL_ROW_20_187 VGND VPWR sky130_fd_sc_hd__tapvpwrvgnd_1
Xhold171 net117 VGND VGND VPWR VPWR net353 sky130_fd_sc_hd__dlygate4sd3_1
Xhold160 net91 VGND VGND VPWR VPWR net342 sky130_fd_sc_hd__dlygate4sd3_1
XPHY_EDGE_ROW_0_Left_46 VGND VGND VPWR VPWR sky130_fd_sc_hd__decap_3
Xhold193 Y\[24\] VGND VGND VPWR VPWR net375 sky130_fd_sc_hd__dlygate4sd3_1
Xhold182 net75 VGND VGND VPWR VPWR net364 sky130_fd_sc_hd__dlygate4sd3_1
X_0967_ net169 VGND VGND VPWR VPWR _0172_ sky130_fd_sc_hd__inv_2
XPHY_EDGE_ROW_42_Left_88 VGND VGND VPWR VPWR sky130_fd_sc_hd__decap_3
X_0898_ net163 VGND VGND VPWR VPWR _0103_ sky130_fd_sc_hd__inv_2
XPHY_EDGE_ROW_12_Right_12 VGND VGND VPWR VPWR sky130_fd_sc_hd__decap_3
XPHY_EDGE_ROW_21_Right_21 VGND VGND VPWR VPWR sky130_fd_sc_hd__decap_3
XFILLER_0_37_137 VGND VGND VPWR VPWR sky130_fd_sc_hd__decap_8
XFILLER_0_37_104 VGND VGND VPWR VPWR sky130_fd_sc_hd__fill_2
XFILLER_0_45_181 VGND VGND VPWR VPWR sky130_fd_sc_hd__decap_4
XPHY_EDGE_ROW_30_Right_30 VGND VGND VPWR VPWR sky130_fd_sc_hd__decap_3
X_0752_ _0429_ _0430_ net227 VGND VGND VPWR VPWR _0030_ sky130_fd_sc_hd__o21ai_1
XFILLER_0_9_17 VGND VGND VPWR VPWR sky130_fd_sc_hd__decap_3
X_0821_ cnt\[4\] _0471_ net358 VGND VGND VPWR VPWR _0473_ sky130_fd_sc_hd__a21oi_1
XFILLER_0_28_137 VGND VGND VPWR VPWR sky130_fd_sc_hd__decap_3
XTAP_TAPCELL_ROW_31_238 VGND VPWR sky130_fd_sc_hd__tapvpwrvgnd_1
X_0683_ _0383_ _0384_ VGND VGND VPWR VPWR _0385_ sky130_fd_sc_hd__nand2_1
XFILLER_0_19_51 VGND VGND VPWR VPWR sky130_fd_sc_hd__decap_4
XFILLER_0_29_6 VGND VGND VPWR VPWR sky130_fd_sc_hd__fill_2
XFILLER_0_19_137 VPWR VGND VPWR VGND sky130_ef_sc_hd__decap_12
X_1097_ clknet_4_4_0_clk _0023_ _0132_ VGND VGND VPWR VPWR spm32.genblk1\[30\].csa.sc
+ sky130_fd_sc_hd__dfrtp_1
XFILLER_0_42_173 VGND VGND VPWR VPWR sky130_fd_sc_hd__fill_1
XFILLER_0_25_107 VGND VGND VPWR VPWR sky130_fd_sc_hd__decap_4
X_1020_ clknet_4_10_0_clk net328 _0055_ VGND VGND VPWR VPWR net82 sky130_fd_sc_hd__dfrtp_1
Xclkbuf_4_11_0_clk clknet_0_clk VGND VGND VPWR VPWR clknet_4_11_0_clk sky130_fd_sc_hd__clkbuf_8
X_0735_ net210 spm32.genblk1\[11\].csa.y VGND VGND VPWR VPWR _0419_ sky130_fd_sc_hd__nand2_1
XFILLER_0_24_195 VGND VGND VPWR VPWR sky130_fd_sc_hd__fill_1
X_0804_ net249 spm32.csa0.y VGND VGND VPWR VPWR _0464_ sky130_fd_sc_hd__nand2_1
X_0666_ net16 net143 VGND VGND VPWR VPWR _0374_ sky130_fd_sc_hd__nand2_1
X_0597_ net76 net152 net134 net275 VGND VGND VPWR VPWR _0220_ sky130_fd_sc_hd__a22o_1
X_1149_ clknet_4_13_0_clk _0025_ _0184_ VGND VGND VPWR VPWR spm32.genblk1\[4\].csa.sc
+ sky130_fd_sc_hd__dfrtp_1
XPHY_EDGE_ROW_45_Left_91 VGND VGND VPWR VPWR sky130_fd_sc_hd__decap_3
XFILLER_0_30_110 VGND VGND VPWR VPWR sky130_fd_sc_hd__decap_6
Xhold64 _0379_ VGND VGND VPWR VPWR net246 sky130_fd_sc_hd__dlygate4sd3_1
Xhold42 spm32.genblk1\[5\].csa.sc VGND VGND VPWR VPWR net224 sky130_fd_sc_hd__dlygate4sd3_1
Xhold31 _0423_ VGND VGND VPWR VPWR net213 sky130_fd_sc_hd__dlygate4sd3_1
Xhold53 _0371_ VGND VGND VPWR VPWR net235 sky130_fd_sc_hd__dlygate4sd3_1
Xhold97 Y\[17\] VGND VGND VPWR VPWR net279 sky130_fd_sc_hd__dlygate4sd3_1
Xhold86 Y\[12\] VGND VGND VPWR VPWR net268 sky130_fd_sc_hd__dlygate4sd3_1
Xhold20 net68 VGND VGND VPWR VPWR net202 sky130_fd_sc_hd__dlygate4sd3_1
Xhold75 _0399_ VGND VGND VPWR VPWR net257 sky130_fd_sc_hd__dlygate4sd3_1
XFILLER_0_38_232 VGND VGND VPWR VPWR sky130_fd_sc_hd__fill_2
XFILLER_0_6_18 VGND VGND VPWR VPWR sky130_fd_sc_hd__fill_2
X_0520_ net159 net39 net142 net326 _0323_ VGND VGND VPWR VPWR _0282_ sky130_fd_sc_hd__o221a_1
X_1003_ clknet_4_11_0_clk _0208_ _0038_ VGND VGND VPWR VPWR net123 sky130_fd_sc_hd__dfrtp_1
XPHY_EDGE_ROW_6_Right_6 VGND VGND VPWR VPWR sky130_fd_sc_hd__decap_3
X_0718_ spm32.genblk1\[14\].csa.sc spm32.genblk1\[14\].csa.y VGND VGND VPWR VPWR _0408_
+ sky130_fd_sc_hd__or2_1
X_0649_ _0361_ _0362_ VGND VGND VPWR VPWR spm32.genblk1\[26\].csa.hsum2 sky130_fd_sc_hd__xor2_1
Xoutput87 net87 VGND VGND VPWR VPWR p[27] sky130_fd_sc_hd__buf_2
Xoutput76 net76 VGND VGND VPWR VPWR p[17] sky130_fd_sc_hd__buf_2
Xoutput98 net98 VGND VGND VPWR VPWR p[37] sky130_fd_sc_hd__buf_2
XFILLER_0_26_224 VGND VGND VPWR VPWR sky130_fd_sc_hd__fill_2
X_0503_ net375 net148 VGND VGND VPWR VPWR _0315_ sky130_fd_sc_hd__or2_1
XFILLER_0_11_6 VGND VGND VPWR VPWR sky130_fd_sc_hd__decap_6
XTAP_TAPCELL_ROW_9_139 VGND VPWR sky130_fd_sc_hd__tapvpwrvgnd_1
XFILLER_0_23_205 VGND VGND VPWR VPWR sky130_fd_sc_hd__decap_8
XFILLER_0_23_249 VGND VGND VPWR VPWR sky130_fd_sc_hd__fill_2
X_0983_ net179 VGND VGND VPWR VPWR _0188_ sky130_fd_sc_hd__inv_2
XTAP_TAPCELL_ROW_14_163 VGND VPWR sky130_fd_sc_hd__tapvpwrvgnd_1
XTAP_TAPCELL_ROW_37_266 VGND VPWR sky130_fd_sc_hd__tapvpwrvgnd_1
XTAP_TAPCELL_ROW_20_188 VGND VPWR sky130_fd_sc_hd__tapvpwrvgnd_1
Xhold161 net119 VGND VGND VPWR VPWR net343 sky130_fd_sc_hd__dlygate4sd3_1
Xhold172 net115 VGND VGND VPWR VPWR net354 sky130_fd_sc_hd__dlygate4sd3_1
Xhold150 _0209_ VGND VGND VPWR VPWR net332 sky130_fd_sc_hd__dlygate4sd3_1
XTAP_TAPCELL_ROW_5_120 VGND VPWR sky130_fd_sc_hd__tapvpwrvgnd_1
Xhold183 net97 VGND VGND VPWR VPWR net365 sky130_fd_sc_hd__dlygate4sd3_1
XTAP_TAPCELL_ROW_28_222 VGND VPWR sky130_fd_sc_hd__tapvpwrvgnd_1
XFILLER_0_11_219 VGND VGND VPWR VPWR sky130_fd_sc_hd__fill_1
XFILLER_0_24_41 VGND VGND VPWR VPWR sky130_fd_sc_hd__fill_1
XFILLER_0_24_85 VPWR VGND VPWR VGND sky130_ef_sc_hd__decap_12
X_0966_ net169 VGND VGND VPWR VPWR _0171_ sky130_fd_sc_hd__inv_2
XFILLER_0_6_224 VGND VGND VPWR VPWR sky130_fd_sc_hd__fill_1
X_0897_ net163 VGND VGND VPWR VPWR _0102_ sky130_fd_sc_hd__inv_2
XFILLER_0_37_149 VGND VGND VPWR VPWR sky130_fd_sc_hd__decap_6
XFILLER_0_45_29 VPWR VGND VPWR VGND sky130_ef_sc_hd__decap_12
X_0751_ _0429_ _0430_ VGND VGND VPWR VPWR spm32.genblk1\[9\].csa.hsum2 sky130_fd_sc_hd__xor2_1
X_0820_ cnt\[4\] _0471_ _0472_ VGND VGND VPWR VPWR _0199_ sky130_fd_sc_hd__o21a_1
XFILLER_0_28_149 VGND VGND VPWR VPWR sky130_fd_sc_hd__fill_2
XTAP_TAPCELL_ROW_31_239 VGND VPWR sky130_fd_sc_hd__tapvpwrvgnd_1
X_0682_ spm32.genblk1\[20\].csa.sc spm32.genblk1\[20\].csa.y VGND VGND VPWR VPWR _0384_
+ sky130_fd_sc_hd__or2_1
XFILLER_0_10_65 VGND VGND VPWR VPWR sky130_fd_sc_hd__decap_6
X_1096_ clknet_4_4_0_clk spm32.genblk1\[30\].csa.hsum2 _0131_ VGND VGND VPWR VPWR
+ spm32.genblk1\[29\].csa.y sky130_fd_sc_hd__dfrtp_1
XFILLER_0_19_149 VPWR VGND VPWR VGND sky130_ef_sc_hd__decap_12
X_0949_ net170 VGND VGND VPWR VPWR _0154_ sky130_fd_sc_hd__inv_2
XFILLER_0_33_130 VGND VGND VPWR VPWR sky130_fd_sc_hd__fill_1
XFILLER_0_33_185 VPWR VGND VPWR VGND sky130_ef_sc_hd__decap_12
X_0734_ _0417_ _0418_ net196 VGND VGND VPWR VPWR _0003_ sky130_fd_sc_hd__o21ai_1
X_0665_ _0371_ _0372_ VGND VGND VPWR VPWR _0373_ sky130_fd_sc_hd__nand2_1
XFILLER_0_21_97 VGND VGND VPWR VPWR sky130_fd_sc_hd__decap_8
X_0803_ _0032_ _0463_ VGND VGND VPWR VPWR _0031_ sky130_fd_sc_hd__and2_1
XFILLER_0_24_141 VGND VGND VPWR VPWR sky130_fd_sc_hd__decap_8
XFILLER_0_41_6 VGND VGND VPWR VPWR sky130_fd_sc_hd__decap_4
X_0596_ net275 net151 net133 net281 VGND VGND VPWR VPWR _0221_ sky130_fd_sc_hd__a22o_1
X_1148_ clknet_4_13_0_clk spm32.genblk1\[4\].csa.hsum2 _0183_ VGND VGND VPWR VPWR
+ spm32.genblk1\[3\].csa.y sky130_fd_sc_hd__dfrtp_1
X_1079_ clknet_4_0_0_clk _0284_ _0114_ VGND VGND VPWR VPWR Y\[17\] sky130_fd_sc_hd__dfrtp_1
Xhold10 _0451_ VGND VGND VPWR VPWR net192 sky130_fd_sc_hd__dlygate4sd3_1
Xhold54 spm32.genblk1\[4\].csa.sc VGND VGND VPWR VPWR net236 sky130_fd_sc_hd__dlygate4sd3_1
Xhold43 _0443_ VGND VGND VPWR VPWR net225 sky130_fd_sc_hd__dlygate4sd3_1
Xhold76 spm32.genblk1\[22\].csa.sc VGND VGND VPWR VPWR net258 sky130_fd_sc_hd__dlygate4sd3_1
Xhold65 spm32.genblk1\[19\].csa.sc VGND VGND VPWR VPWR net247 sky130_fd_sc_hd__dlygate4sd3_1
Xhold32 net121 VGND VGND VPWR VPWR net214 sky130_fd_sc_hd__dlygate4sd3_1
Xhold98 net87 VGND VGND VPWR VPWR net280 sky130_fd_sc_hd__dlygate4sd3_1
Xhold21 _0203_ VGND VGND VPWR VPWR net203 sky130_fd_sc_hd__dlygate4sd3_1
Xhold87 net90 VGND VGND VPWR VPWR net269 sky130_fd_sc_hd__dlygate4sd3_1
X_1002_ clknet_4_11_0_clk _0207_ _0037_ VGND VGND VPWR VPWR net112 sky130_fd_sc_hd__dfrtp_1
X_0717_ net206 spm32.genblk1\[14\].csa.y VGND VGND VPWR VPWR _0407_ sky130_fd_sc_hd__nand2_1
X_0648_ net19 net144 VGND VGND VPWR VPWR _0362_ sky130_fd_sc_hd__nand2_1
X_0579_ net346 net154 net136 net365 VGND VGND VPWR VPWR _0238_ sky130_fd_sc_hd__a22o_1
Xclkbuf_4_10_0_clk clknet_0_clk VGND VGND VPWR VPWR clknet_4_10_0_clk sky130_fd_sc_hd__clkbuf_8
Xoutput77 net77 VGND VGND VPWR VPWR p[18] sky130_fd_sc_hd__buf_2
Xoutput88 net88 VGND VGND VPWR VPWR p[28] sky130_fd_sc_hd__buf_2
Xoutput99 net99 VGND VGND VPWR VPWR p[38] sky130_fd_sc_hd__buf_2
XFILLER_0_26_247 VGND VGND VPWR VPWR sky130_fd_sc_hd__fill_2
XFILLER_0_41_228 VGND VGND VPWR VPWR sky130_fd_sc_hd__fill_1
X_0502_ net160 net49 net141 net305 _0314_ VGND VGND VPWR VPWR _0291_ sky130_fd_sc_hd__o221a_1
XFILLER_0_4_163 VGND VGND VPWR VPWR sky130_fd_sc_hd__fill_2
XFILLER_0_17_225 VGND VGND VPWR VPWR sky130_fd_sc_hd__fill_1
XFILLER_0_17_236 VGND VGND VPWR VPWR sky130_fd_sc_hd__decap_4
XFILLER_0_40_272 VGND VGND VPWR VPWR sky130_fd_sc_hd__fill_1
XFILLER_0_31_272 VGND VGND VPWR VPWR sky130_fd_sc_hd__fill_1
X_0982_ net176 VGND VGND VPWR VPWR _0187_ sky130_fd_sc_hd__inv_2
XFILLER_0_14_217 VGND VGND VPWR VPWR sky130_fd_sc_hd__decap_3
XFILLER_0_22_250 VGND VGND VPWR VPWR sky130_fd_sc_hd__fill_2
Xhold162 _0258_ VGND VGND VPWR VPWR net344 sky130_fd_sc_hd__dlygate4sd3_1
Xhold151 Y\[26\] VGND VGND VPWR VPWR net333 sky130_fd_sc_hd__dlygate4sd3_1
XTAP_TAPCELL_ROW_20_189 VGND VPWR sky130_fd_sc_hd__tapvpwrvgnd_1
XFILLER_0_20_209 VGND VGND VPWR VPWR sky130_fd_sc_hd__decap_8
Xhold140 net101 VGND VGND VPWR VPWR net322 sky130_fd_sc_hd__dlygate4sd3_1
Xhold184 net127 VGND VGND VPWR VPWR net366 sky130_fd_sc_hd__dlygate4sd3_1
Xhold173 _0254_ VGND VGND VPWR VPWR net355 sky130_fd_sc_hd__dlygate4sd3_1
XTAP_TAPCELL_ROW_5_121 VGND VPWR sky130_fd_sc_hd__tapvpwrvgnd_1
XTAP_TAPCELL_ROW_28_223 VGND VPWR sky130_fd_sc_hd__tapvpwrvgnd_1
XFILLER_0_24_97 VPWR VGND VPWR VGND sky130_ef_sc_hd__decap_12
XFILLER_0_40_85 VGND VGND VPWR VPWR sky130_fd_sc_hd__decap_4
X_0965_ net169 VGND VGND VPWR VPWR _0170_ sky130_fd_sc_hd__inv_2
XFILLER_0_6_236 VGND VGND VPWR VPWR sky130_fd_sc_hd__fill_2
X_0896_ net163 VGND VGND VPWR VPWR _0101_ sky130_fd_sc_hd__inv_2
X_0750_ net32 net143 VGND VGND VPWR VPWR _0430_ sky130_fd_sc_hd__nand2_1
X_0681_ net253 spm32.genblk1\[20\].csa.y VGND VGND VPWR VPWR _0383_ sky130_fd_sc_hd__nand2_1
XFILLER_0_36_172 VGND VGND VPWR VPWR sky130_fd_sc_hd__fill_1
XTAP_TAPCELL_ROW_0_92 VGND VPWR sky130_fd_sc_hd__tapvpwrvgnd_1
X_1095_ clknet_4_2_0_clk nstate\[1\] _0130_ VGND VGND VPWR VPWR state\[1\] sky130_fd_sc_hd__dfrtp_1
X_0948_ net170 VGND VGND VPWR VPWR _0153_ sky130_fd_sc_hd__inv_2
X_0879_ net179 VGND VGND VPWR VPWR _0084_ sky130_fd_sc_hd__inv_2
XFILLER_0_33_197 VGND VGND VPWR VPWR sky130_fd_sc_hd__fill_2
XFILLER_0_0_209 VGND VGND VPWR VPWR sky130_fd_sc_hd__fill_2
XFILLER_0_16_109 VPWR VGND VPWR VGND sky130_ef_sc_hd__decap_12
X_0802_ net25 spm32.tcmp.z net144 VGND VGND VPWR VPWR _0463_ sky130_fd_sc_hd__nand3_1
X_0733_ _0417_ _0418_ VGND VGND VPWR VPWR spm32.genblk1\[12\].csa.hsum2 sky130_fd_sc_hd__xor2_1
X_0664_ spm32.genblk1\[23\].csa.sc spm32.genblk1\[23\].csa.y VGND VGND VPWR VPWR _0372_
+ sky130_fd_sc_hd__or2_1
X_0595_ net281 net151 net133 net325 VGND VGND VPWR VPWR _0222_ sky130_fd_sc_hd__a22o_1
XFILLER_0_34_6 VGND VGND VPWR VPWR sky130_fd_sc_hd__fill_1
X_1147_ clknet_4_13_0_clk _0026_ _0182_ VGND VGND VPWR VPWR spm32.genblk1\[5\].csa.sc
+ sky130_fd_sc_hd__dfrtp_1
X_1078_ clknet_4_0_0_clk _0283_ _0113_ VGND VGND VPWR VPWR Y\[16\] sky130_fd_sc_hd__dfrtp_1
Xhold22 spm32.genblk1\[15\].csa.sc VGND VGND VPWR VPWR net204 sky130_fd_sc_hd__dlygate4sd3_1
Xhold11 spm32.genblk1\[25\].csa.y VGND VGND VPWR VPWR net193 sky130_fd_sc_hd__dlygate4sd3_1
Xhold55 _0447_ VGND VGND VPWR VPWR net237 sky130_fd_sc_hd__dlygate4sd3_1
Xhold77 _0375_ VGND VGND VPWR VPWR net259 sky130_fd_sc_hd__dlygate4sd3_1
Xhold44 spm32.genblk1\[9\].csa.sc VGND VGND VPWR VPWR net226 sky130_fd_sc_hd__dlygate4sd3_1
Xhold33 _0260_ VGND VGND VPWR VPWR net215 sky130_fd_sc_hd__dlygate4sd3_1
Xhold66 _0387_ VGND VGND VPWR VPWR net248 sky130_fd_sc_hd__dlygate4sd3_1
Xhold99 net78 VGND VGND VPWR VPWR net281 sky130_fd_sc_hd__dlygate4sd3_1
Xhold88 _0204_ VGND VGND VPWR VPWR net270 sky130_fd_sc_hd__dlygate4sd3_1
XFILLER_0_21_167 VGND VGND VPWR VPWR sky130_fd_sc_hd__fill_1
X_1001_ clknet_4_11_0_clk net304 _0036_ VGND VGND VPWR VPWR net101 sky130_fd_sc_hd__dfrtp_1
XFILLER_0_29_223 VGND VGND VPWR VPWR sky130_fd_sc_hd__fill_1
XFILLER_0_8_139 VGND VGND VPWR VPWR sky130_fd_sc_hd__fill_1
XFILLER_0_12_123 VGND VGND VPWR VPWR sky130_fd_sc_hd__decap_3
XFILLER_0_12_178 VPWR VGND VPWR VGND sky130_ef_sc_hd__decap_12
X_0578_ net97 net153 net135 net361 VGND VGND VPWR VPWR _0239_ sky130_fd_sc_hd__a22o_1
X_0647_ _0359_ _0360_ VGND VGND VPWR VPWR _0361_ sky130_fd_sc_hd__nand2_1
X_0716_ _0405_ _0406_ net205 VGND VGND VPWR VPWR _0006_ sky130_fd_sc_hd__o21ai_1
XFILLER_0_35_204 VGND VGND VPWR VPWR sky130_fd_sc_hd__decap_4
Xoutput67 net67 VGND VGND VPWR VPWR done sky130_fd_sc_hd__buf_2
Xoutput89 net89 VGND VGND VPWR VPWR p[29] sky130_fd_sc_hd__buf_2
Xoutput78 net78 VGND VGND VPWR VPWR p[19] sky130_fd_sc_hd__buf_2
XFILLER_0_5_109 VGND VGND VPWR VPWR sky130_fd_sc_hd__decap_3
XFILLER_0_26_237 VGND VGND VPWR VPWR sky130_fd_sc_hd__fill_2
X_0501_ Y\[25\] net148 VGND VGND VPWR VPWR _0314_ sky130_fd_sc_hd__or2_1
XTAP_TAPCELL_ROW_17_173 VGND VPWR sky130_fd_sc_hd__tapvpwrvgnd_1
XFILLER_0_4_131 VGND VGND VPWR VPWR sky130_fd_sc_hd__fill_1
XFILLER_0_4_120 VGND VGND VPWR VPWR sky130_fd_sc_hd__fill_1
X_0981_ net179 VGND VGND VPWR VPWR _0186_ sky130_fd_sc_hd__inv_2
XFILLER_0_13_55 VGND VGND VPWR VPWR sky130_fd_sc_hd__fill_1
XFILLER_0_38_96 VGND VGND VPWR VPWR sky130_fd_sc_hd__fill_1
XPHY_EDGE_ROW_19_Left_65 VGND VGND VPWR VPWR sky130_fd_sc_hd__decap_3
Xhold174 net120 VGND VGND VPWR VPWR net356 sky130_fd_sc_hd__dlygate4sd3_1
Xhold130 net81 VGND VGND VPWR VPWR net312 sky130_fd_sc_hd__dlygate4sd3_1
Xhold163 net74 VGND VGND VPWR VPWR net345 sky130_fd_sc_hd__dlygate4sd3_1
Xhold152 net128 VGND VGND VPWR VPWR net334 sky130_fd_sc_hd__dlygate4sd3_1
Xhold141 net100 VGND VGND VPWR VPWR net323 sky130_fd_sc_hd__dlygate4sd3_1
Xhold185 net110 VGND VGND VPWR VPWR net367 sky130_fd_sc_hd__dlygate4sd3_1
XTAP_TAPCELL_ROW_5_122 VGND VPWR sky130_fd_sc_hd__tapvpwrvgnd_1
XTAP_TAPCELL_ROW_28_224 VGND VPWR sky130_fd_sc_hd__tapvpwrvgnd_1
XTAP_TAPCELL_ROW_11_146 VGND VPWR sky130_fd_sc_hd__tapvpwrvgnd_1
XFILLER_0_39_192 VPWR VGND VPWR VGND sky130_ef_sc_hd__decap_12
XFILLER_0_40_42 VPWR VGND VPWR VGND sky130_ef_sc_hd__decap_12
X_0964_ net168 VGND VGND VPWR VPWR _0169_ sky130_fd_sc_hd__inv_2
XTAP_TAPCELL_ROW_34_249 VGND VPWR sky130_fd_sc_hd__tapvpwrvgnd_1
XFILLER_0_40_64 VPWR VGND VPWR VGND sky130_ef_sc_hd__decap_12
X_0895_ net163 VGND VGND VPWR VPWR _0100_ sky130_fd_sc_hd__inv_2
XFILLER_0_45_195 VGND VGND VPWR VPWR sky130_fd_sc_hd__fill_1
XFILLER_0_28_129 VGND VGND VPWR VPWR sky130_fd_sc_hd__decap_8
X_0680_ _0381_ _0382_ net246 VGND VGND VPWR VPWR _0013_ sky130_fd_sc_hd__o21ai_1
XTAP_TAPCELL_ROW_0_93 VGND VPWR sky130_fd_sc_hd__tapvpwrvgnd_1
XFILLER_0_19_65 VPWR VGND VPWR VGND sky130_ef_sc_hd__decap_12
X_1094_ clknet_4_2_0_clk nstate\[0\] _0129_ VGND VGND VPWR VPWR state\[0\] sky130_fd_sc_hd__dfrtp_1
X_0947_ net166 VGND VGND VPWR VPWR _0152_ sky130_fd_sc_hd__inv_2
X_0878_ net178 VGND VGND VPWR VPWR _0083_ sky130_fd_sc_hd__inv_2
XFILLER_0_18_195 VGND VGND VPWR VPWR sky130_fd_sc_hd__fill_1
XFILLER_0_33_121 VGND VGND VPWR VPWR sky130_fd_sc_hd__decap_3
X_0801_ Y\[0\] net25 _0302_ net186 VGND VGND VPWR VPWR _0032_ sky130_fd_sc_hd__a31o_1
XFILLER_0_24_121 VPWR VGND VPWR VGND sky130_ef_sc_hd__decap_12
X_0732_ net4 net145 VGND VGND VPWR VPWR _0418_ sky130_fd_sc_hd__nand2_1
X_0663_ net234 spm32.genblk1\[23\].csa.y VGND VGND VPWR VPWR _0371_ sky130_fd_sc_hd__nand2_1
X_0594_ net80 net152 net134 net312 VGND VGND VPWR VPWR _0223_ sky130_fd_sc_hd__a22o_1
X_1146_ clknet_4_13_0_clk spm32.genblk1\[5\].csa.hsum2 _0181_ VGND VGND VPWR VPWR
+ spm32.genblk1\[4\].csa.y sky130_fd_sc_hd__dfrtp_1
XFILLER_0_27_6 VGND VGND VPWR VPWR sky130_fd_sc_hd__decap_3
X_1077_ clknet_4_1_0_clk _0282_ _0112_ VGND VGND VPWR VPWR Y\[15\] sky130_fd_sc_hd__dfrtp_1
Xhold56 spm32.genblk1\[6\].csa.sc VGND VGND VPWR VPWR net238 sky130_fd_sc_hd__dlygate4sd3_1
Xhold34 spm32.genblk1\[8\].csa.sc VGND VGND VPWR VPWR net216 sky130_fd_sc_hd__dlygate4sd3_1
Xhold45 _0427_ VGND VGND VPWR VPWR net227 sky130_fd_sc_hd__dlygate4sd3_1
Xhold23 _0403_ VGND VGND VPWR VPWR net205 sky130_fd_sc_hd__dlygate4sd3_1
Xhold12 _0363_ VGND VGND VPWR VPWR net194 sky130_fd_sc_hd__dlygate4sd3_1
Xhold89 net86 VGND VGND VPWR VPWR net271 sky130_fd_sc_hd__dlygate4sd3_1
Xhold78 cnt\[2\] VGND VGND VPWR VPWR net260 sky130_fd_sc_hd__dlygate4sd3_1
Xhold67 spm32.csa0.sc VGND VGND VPWR VPWR net249 sky130_fd_sc_hd__dlygate4sd3_1
XPHY_EDGE_ROW_7_Left_53 VGND VGND VPWR VPWR sky130_fd_sc_hd__decap_3
XFILLER_0_21_113 VPWR VGND VPWR VGND sky130_ef_sc_hd__decap_12
X_1000_ clknet_4_11_0_clk _0205_ _0035_ VGND VGND VPWR VPWR net90 sky130_fd_sc_hd__dfrtp_1
XFILLER_0_16_88 VGND VGND VPWR VPWR sky130_fd_sc_hd__decap_6
X_0715_ _0405_ _0406_ VGND VGND VPWR VPWR spm32.genblk1\[15\].csa.hsum2 sky130_fd_sc_hd__xor2_1
X_0577_ net98 net156 net138 net264 VGND VGND VPWR VPWR _0240_ sky130_fd_sc_hd__a22o_1
X_0646_ spm32.genblk1\[26\].csa.sc spm32.genblk1\[26\].csa.y VGND VGND VPWR VPWR _0360_
+ sky130_fd_sc_hd__or2_1
X_1129_ clknet_4_12_0_clk _0005_ _0164_ VGND VGND VPWR VPWR spm32.genblk1\[14\].csa.sc
+ sky130_fd_sc_hd__dfrtp_1
XFILLER_0_35_216 VGND VGND VPWR VPWR sky130_fd_sc_hd__decap_4
XFILLER_0_7_140 VPWR VGND VPWR VGND sky130_ef_sc_hd__decap_12
XFILLER_0_43_271 VGND VGND VPWR VPWR sky130_fd_sc_hd__fill_2
XPHY_EDGE_ROW_33_Left_79 VGND VGND VPWR VPWR sky130_fd_sc_hd__decap_3
Xoutput79 net79 VGND VGND VPWR VPWR p[1] sky130_fd_sc_hd__buf_2
Xoutput68 net68 VGND VGND VPWR VPWR p[0] sky130_fd_sc_hd__buf_2