*SPEF "ieee 1481-1999"
*DESIGN "pm32"
*DATE "13:45:26 Thursday May 30, 2024"
*VENDOR "The OpenROAD Project"
*PROGRAM "OpenROAD"
*VERSION "d423155d69de7f683a23f6916ead418a615ad4ad"
*DESIGN_FLOW "NAME_SCOPE LOCAL" "PIN_CAP NONE"
*DIVIDER /
*DELIMITER :
*BUS_DELIMITER []
*T_UNIT 1 NS
*C_UNIT 1 PF
*R_UNIT 1 OHM
*L_UNIT 1 HENRY

*NAME_MAP
*3 clk
*4 done
*5 mc[0]
*6 mc[10]
*7 mc[11]
*8 mc[12]
*9 mc[13]
*10 mc[14]
*11 mc[15]
*12 mc[16]
*13 mc[17]
*14 mc[18]
*15 mc[19]
*16 mc[1]
*17 mc[20]
*18 mc[21]
*19 mc[22]
*20 mc[23]
*21 mc[24]
*22 mc[25]
*23 mc[26]
*24 mc[27]
*25 mc[28]
*26 mc[29]
*27 mc[2]
*28 mc[30]
*29 mc[31]
*30 mc[3]
*31 mc[4]
*32 mc[5]
*33 mc[6]
*34 mc[7]
*35 mc[8]
*36 mc[9]
*37 mp[0]
*38 mp[10]
*39 mp[11]
*40 mp[12]
*41 mp[13]
*42 mp[14]
*43 mp[15]
*44 mp[16]
*45 mp[17]
*46 mp[18]
*47 mp[19]
*48 mp[1]
*49 mp[20]
*50 mp[21]
*51 mp[22]
*52 mp[23]
*53 mp[24]
*54 mp[25]
*55 mp[26]
*56 mp[27]
*57 mp[28]
*58 mp[29]
*59 mp[2]
*60 mp[30]
*61 mp[31]
*62 mp[3]
*63 mp[4]
*64 mp[5]
*65 mp[6]
*66 mp[7]
*67 mp[8]
*68 mp[9]
*69 p[0]
*70 p[10]
*71 p[11]
*72 p[12]
*73 p[13]
*74 p[14]
*75 p[15]
*76 p[16]
*77 p[17]
*78 p[18]
*79 p[19]
*80 p[1]
*81 p[20]
*82 p[21]
*83 p[22]
*84 p[23]
*85 p[24]
*86 p[25]
*87 p[26]
*88 p[27]
*89 p[28]
*90 p[29]
*91 p[2]
*92 p[30]
*93 p[31]
*94 p[32]
*95 p[33]
*96 p[34]
*97 p[35]
*98 p[36]
*99 p[37]
*100 p[38]
*101 p[39]
*102 p[3]
*103 p[40]
*104 p[41]
*105 p[42]
*106 p[43]
*107 p[44]
*108 p[45]
*109 p[46]
*110 p[47]
*111 p[48]
*112 p[49]
*113 p[4]
*114 p[50]
*115 p[51]
*116 p[52]
*117 p[53]
*118 p[54]
*119 p[55]
*120 p[56]
*121 p[57]
*122 p[58]
*123 p[59]
*124 p[5]
*125 p[60]
*126 p[61]
*127 p[62]
*128 p[63]
*129 p[6]
*130 p[7]
*131 p[8]
*132 p[9]
*133 rst
*134 start
*135 Y\[0\]
*136 Y\[10\]
*137 Y\[11\]
*138 Y\[12\]
*139 Y\[13\]
*140 Y\[14\]
*141 Y\[15\]
*142 Y\[16\]
*143 Y\[17\]
*144 Y\[18\]
*145 Y\[19\]
*146 Y\[1\]
*147 Y\[20\]
*148 Y\[21\]
*149 Y\[22\]
*150 Y\[23\]
*151 Y\[24\]
*152 Y\[25\]
*153 Y\[26\]
*154 Y\[27\]
*155 Y\[28\]
*156 Y\[29\]
*157 Y\[2\]
*158 Y\[30\]
*159 Y\[31\]
*160 Y\[3\]
*161 Y\[4\]
*162 Y\[5\]
*163 Y\[6\]
*164 Y\[7\]
*165 Y\[8\]
*166 Y\[9\]
*167 _0000_
*168 _0001_
*169 _0002_
*170 _0003_
*171 _0004_
*172 _0005_
*173 _0006_
*174 _0007_
*175 _0008_
*176 _0009_
*177 _0010_
*178 _0011_
*179 _0012_
*180 _0013_
*181 _0014_
*182 _0015_
*183 _0016_
*184 _0017_
*185 _0018_
*186 _0019_
*187 _0020_
*188 _0021_
*189 _0022_
*190 _0023_
*191 _0024_
*192 _0025_
*193 _0026_
*194 _0027_
*195 _0028_
*196 _0029_
*197 _0030_
*198 _0031_
*199 _0032_
*200 _0033_
*201 _0034_
*202 _0035_
*203 _0036_
*204 _0037_
*205 _0038_
*206 _0039_
*207 _0040_
*208 _0041_
*209 _0042_
*210 _0043_
*211 _0044_
*212 _0045_
*213 _0046_
*214 _0047_
*215 _0048_
*216 _0049_
*217 _0050_
*218 _0051_
*219 _0052_
*220 _0053_
*221 _0054_
*222 _0055_
*223 _0056_
*224 _0057_
*225 _0058_
*226 _0059_
*227 _0060_
*228 _0061_
*229 _0062_
*230 _0063_
*231 _0064_
*232 _0065_
*233 _0066_
*234 _0067_
*235 _0068_
*236 _0069_
*237 _0070_
*238 _0071_
*239 _0072_
*240 _0073_
*241 _0074_
*242 _0075_
*243 _0076_
*244 _0077_
*245 _0078_
*246 _0079_
*247 _0080_
*248 _0081_
*249 _0082_
*250 _0083_
*251 _0084_
*252 _0085_
*253 _0086_
*254 _0087_
*255 _0088_
*256 _0089_
*257 _0090_
*258 _0091_
*259 _0092_
*260 _0093_
*261 _0094_
*262 _0095_
*263 _0096_
*264 _0097_
*265 _0098_
*266 _0099_
*267 _0100_
*268 _0101_
*269 _0102_
*270 _0103_
*271 _0104_
*272 _0105_
*273 _0106_
*274 _0107_
*275 _0108_
*276 _0109_
*277 _0110_
*278 _0111_
*279 _0112_
*280 _0113_
*281 _0114_
*282 _0115_
*283 _0116_
*284 _0117_
*285 _0118_
*286 _0119_
*287 _0120_
*288 _0121_
*289 _0122_
*290 _0123_
*291 _0124_
*292 _0125_
*293 _0126_
*294 _0127_
*295 _0128_
*296 _0129_
*297 _0130_
*298 _0131_
*299 _0132_
*300 _0133_
*301 _0134_
*302 _0135_
*303 _0136_
*304 _0137_
*305 _0138_
*306 _0139_
*307 _0140_
*308 _0141_
*309 _0142_
*310 _0143_
*311 _0144_
*312 _0145_
*313 _0146_
*314 _0147_
*315 _0148_
*316 _0149_
*317 _0150_
*318 _0151_
*319 _0152_
*320 _0153_
*321 _0154_
*322 _0155_
*323 _0156_
*324 _0157_
*325 _0158_
*326 _0159_
*327 _0160_
*328 _0161_
*329 _0162_
*330 _0163_
*331 _0164_
*332 _0165_
*333 _0166_
*334 _0167_
*335 _0168_
*336 _0169_
*337 _0170_
*338 _0171_
*339 _0172_
*340 _0173_
*341 _0174_
*342 _0175_
*343 _0176_
*344 _0177_
*345 _0178_
*346 _0179_
*347 _0180_
*348 _0181_
*349 _0182_
*350 _0183_
*351 _0184_
*352 _0185_
*353 _0186_
*354 _0187_
*355 _0188_
*356 _0189_
*357 _0190_
*358 _0191_
*359 _0192_
*360 _0193_
*361 _0194_
*362 _0195_
*363 _0196_
*364 _0197_
*365 _0198_
*366 _0199_
*367 _0200_
*368 _0201_
*369 _0202_
*370 _0203_
*371 _0204_
*372 _0205_
*373 _0206_
*374 _0207_
*375 _0208_
*376 _0209_
*377 _0210_
*378 _0211_
*379 _0212_
*380 _0213_
*381 _0214_
*382 _0215_
*383 _0216_
*384 _0217_
*385 _0218_
*386 _0219_
*387 _0220_
*388 _0221_
*389 _0222_
*390 _0223_
*391 _0224_
*392 _0225_
*393 _0226_
*394 _0227_
*395 _0228_
*396 _0229_
*397 _0230_
*398 _0231_
*399 _0232_
*400 _0233_
*401 _0234_
*402 _0235_
*403 _0236_
*404 _0237_
*405 _0238_
*406 _0239_
*407 _0240_
*408 _0241_
*409 _0242_
*410 _0243_
*411 _0244_
*412 _0245_
*413 _0246_
*414 _0247_
*415 _0248_
*416 _0249_
*417 _0250_
*418 _0251_
*419 _0252_
*420 _0253_
*421 _0254_
*422 _0255_
*423 _0256_
*424 _0257_
*425 _0258_
*426 _0259_
*427 _0260_
*428 _0261_
*429 _0262_
*430 _0263_
*431 _0264_
*432 _0265_
*433 _0266_
*434 _0267_
*435 _0268_
*436 _0269_
*437 _0270_
*438 _0271_
*439 _0272_
*440 _0273_
*441 _0274_
*442 _0275_
*443 _0276_
*444 _0277_
*445 _0278_
*446 _0279_
*447 _0280_
*448 _0281_
*449 _0282_
*450 _0283_
*451 _0284_
*452 _0285_
*453 _0286_
*454 _0287_
*455 _0288_
*456 _0289_
*457 _0290_
*458 _0291_
*459 _0292_
*460 _0293_
*461 _0294_
*462 _0295_
*463 _0296_
*464 _0297_
*465 _0298_
*466 _0299_
*467 _0300_
*468 _0301_
*469 _0302_
*470 _0303_
*471 _0304_
*472 _0305_
*473 _0306_
*474 _0307_
*475 _0308_
*476 _0309_
*477 _0310_
*478 _0311_
*479 _0312_
*480 _0313_
*481 _0314_
*482 _0315_
*483 _0316_
*484 _0317_
*485 _0318_
*486 _0319_
*487 _0320_
*488 _0321_
*489 _0322_
*490 _0323_
*491 _0324_
*492 _0325_
*493 _0326_
*494 _0327_
*495 _0328_
*496 _0329_
*497 _0330_
*498 _0331_
*499 _0332_
*500 _0333_
*501 _0334_
*502 _0335_
*503 _0336_
*504 _0337_
*505 _0338_
*506 _0339_
*507 _0340_
*508 _0341_
*509 _0342_
*510 _0343_
*511 _0344_
*512 _0345_
*513 _0346_
*514 _0347_
*515 _0348_
*516 _0349_
*517 _0350_
*518 _0351_
*519 _0352_
*520 _0353_
*521 _0354_
*522 _0355_
*523 _0356_
*524 _0357_
*525 _0358_
*526 _0359_
*527 _0360_
*528 _0361_
*529 _0362_
*530 _0363_
*531 _0364_
*532 _0365_
*533 _0366_
*534 _0367_
*535 _0368_
*536 _0369_
*537 _0370_
*538 _0371_
*539 _0372_
*540 _0373_
*541 _0374_
*542 _0375_
*543 _0376_
*544 _0377_
*545 _0378_
*546 _0379_
*547 _0380_
*548 _0381_
*549 _0382_
*550 _0383_
*551 _0384_
*552 _0385_
*553 _0386_
*554 _0387_
*555 _0388_
*556 _0389_
*557 _0390_
*558 _0391_
*559 _0392_
*560 _0393_
*561 _0394_
*562 _0395_
*563 _0396_
*564 _0397_
*565 _0398_
*566 _0399_
*567 _0400_
*568 _0401_
*569 _0402_
*570 _0403_
*571 _0404_
*572 _0405_
*573 _0406_
*574 _0407_
*575 _0408_
*576 _0409_
*577 _0410_
*578 _0411_
*579 _0412_
*580 _0413_
*581 _0414_
*582 _0415_
*583 _0416_
*584 _0417_
*585 _0418_
*586 _0419_
*587 _0420_
*588 _0421_
*589 _0422_
*590 _0423_
*591 _0424_
*592 _0425_
*593 _0426_
*594 _0427_
*595 _0428_
*596 _0429_
*597 _0430_
*598 _0431_
*599 _0432_
*600 _0433_
*601 _0434_
*602 _0435_
*603 _0436_
*604 _0437_
*605 _0438_
*606 _0439_
*607 _0440_
*608 _0441_
*609 _0442_
*610 _0443_
*611 _0444_
*612 _0445_
*613 _0446_
*614 _0447_
*615 _0448_
*616 _0449_
*617 _0450_
*618 _0451_
*619 _0452_
*620 _0453_
*621 _0454_
*622 _0455_
*623 _0456_
*624 _0457_
*625 _0458_
*626 _0459_
*627 _0460_
*628 _0461_
*629 _0462_
*630 _0463_
*631 _0464_
*632 _0465_
*633 _0466_
*634 _0467_
*635 _0468_
*636 _0469_
*637 _0470_
*638 _0471_
*639 _0472_
*640 _0473_
*641 _0474_
*642 _0475_
*643 _0476_
*644 _0477_
*645 clknet_0_clk
*646 clknet_4_0_0_clk
*647 clknet_4_10_0_clk
*648 clknet_4_11_0_clk
*649 clknet_4_12_0_clk
*650 clknet_4_13_0_clk
*651 clknet_4_14_0_clk
*652 clknet_4_15_0_clk
*653 clknet_4_1_0_clk
*654 clknet_4_2_0_clk
*655 clknet_4_3_0_clk
*656 clknet_4_4_0_clk
*657 clknet_4_5_0_clk
*658 clknet_4_6_0_clk
*659 clknet_4_7_0_clk
*660 clknet_4_8_0_clk
*661 clknet_4_9_0_clk
*662 cnt\[0\]
*663 cnt\[1\]
*664 cnt\[2\]
*665 cnt\[3\]
*666 cnt\[4\]
*667 cnt\[5\]
*668 cnt\[6\]
*669 cnt\[7\]
*670 net1
*671 net10
*672 net100
*673 net101
*674 net102
*675 net103
*676 net104
*677 net105
*678 net106
*679 net107
*680 net108
*681 net109
*682 net11
*683 net110
*684 net111
*685 net112
*686 net113
*687 net114
*688 net115
*689 net116
*690 net117
*691 net118
*692 net119
*693 net12
*694 net120
*695 net121
*696 net122
*697 net123
*698 net124
*699 net125
*700 net126
*701 net127
*702 net128
*703 net129
*704 net13
*705 net130
*706 net131
*707 net132
*708 net133
*709 net134
*710 net135
*711 net136
*712 net137
*713 net138
*714 net139
*715 net14
*716 net140
*717 net141
*718 net142
*719 net143
*720 net144
*721 net145
*722 net146
*723 net147
*724 net148
*725 net149
*726 net15
*727 net150
*728 net151
*729 net152
*730 net153
*731 net154
*732 net155
*733 net156
*734 net157
*735 net158
*736 net159
*737 net16
*738 net160
*739 net161
*740 net162
*741 net163
*742 net164
*743 net165
*744 net166
*745 net167
*746 net168
*747 net169
*748 net17
*749 net170
*750 net171
*751 net172
*752 net173
*753 net174
*754 net175
*755 net176
*756 net177
*757 net178
*758 net179
*759 net18
*760 net180
*761 net181
*762 net182
*763 net183
*764 net184
*765 net185
*766 net186
*767 net187
*768 net188
*769 net189
*770 net19
*771 net190
*772 net191
*773 net192
*774 net193
*775 net194
*776 net195
*777 net196
*778 net197
*779 net198
*780 net199
*781 net2
*782 net20
*783 net200
*784 net201
*785 net202
*786 net203
*787 net204
*788 net205
*789 net206
*790 net207
*791 net208
*792 net209
*793 net21
*794 net210
*795 net211
*796 net212
*797 net213
*798 net214
*799 net215
*800 net216
*801 net217
*802 net218
*803 net219
*804 net22
*805 net220
*806 net221
*807 net222
*808 net223
*809 net224
*810 net225
*811 net226
*812 net227
*813 net228
*814 net229
*815 net23
*816 net230
*817 net231
*818 net232
*819 net233
*820 net234
*821 net235
*822 net236
*823 net237
*824 net238
*825 net239
*826 net24
*827 net240
*828 net241
*829 net242
*830 net243
*831 net244
*832 net245
*833 net246
*834 net247
*835 net248
*836 net249
*837 net25
*838 net250
*839 net251
*840 net252
*841 net253
*842 net254
*843 net255
*844 net256
*845 net257
*846 net258
*847 net259
*848 net26
*849 net260
*850 net261
*851 net262
*852 net263
*853 net264
*854 net265
*855 net266
*856 net267
*857 net268
*858 net269
*859 net27
*860 net270
*861 net271
*862 net272
*863 net273
*864 net274
*865 net275
*866 net276
*867 net277
*868 net278
*869 net279
*870 net28
*871 net280
*872 net281
*873 net282
*874 net283
*875 net284
*876 net285
*877 net286
*878 net287
*879 net288
*880 net289
*881 net29
*882 net290
*883 net291
*884 net292
*885 net293
*886 net294
*887 net295
*888 net296
*889 net297
*890 net298
*891 net299
*892 net3
*893 net30
*894 net300
*895 net301
*896 net302
*897 net303
*898 net304
*899 net305
*900 net306
*901 net307
*902 net308
*903 net309
*904 net31
*905 net310
*906 net311
*907 net312
*908 net313
*909 net314
*910 net315
*911 net316
*912 net317
*913 net318
*914 net319
*915 net32
*916 net320
*917 net321
*918 net322
*919 net323
*920 net324
*921 net325
*922 net326
*923 net327
*924 net328
*925 net329
*926 net33
*927 net330
*928 net331
*929 net332
*930 net333
*931 net334
*932 net335
*933 net336
*934 net337
*935 net338
*936 net339
*937 net34
*938 net340
*939 net341
*940 net342
*941 net343
*942 net344
*943 net345
*944 net346
*945 net347
*946 net348
*947 net349
*948 net35
*949 net350
*950 net351
*951 net352
*952 net353
*953 net354
*954 net355
*955 net356
*956 net357
*957 net358
*958 net359
*959 net36
*960 net360
*961 net361
*962 net362
*963 net363
*964 net364
*965 net365
*966 net366
*967 net367
*968 net368
*969 net369
*970 net37
*971 net370
*972 net371
*973 net372
*974 net373
*975 net374
*976 net375
*977 net38
*978 net39
*979 net4
*980 net40
*981 net41
*982 net42
*983 net43
*984 net44
*985 net45
*986 net46
*987 net47
*988 net48
*989 net49
*990 net5
*991 net50
*992 net51
*993 net52
*994 net53
*995 net54
*996 net55
*997 net56
*998 net57
*999 net58
*1000 net59
*1001 net6
*1002 net60
*1003 net61
*1004 net62
*1005 net63
*1006 net64
*1007 net65
*1008 net66
*1009 net67
*1010 net68
*1011 net69
*1012 net7
*1013 net70
*1014 net71
*1015 net72
*1016 net73
*1017 net74
*1018 net75
*1019 net76
*1020 net77
*1021 net78
*1022 net79
*1023 net8
*1024 net80
*1025 net81
*1026 net82
*1027 net83
*1028 net84
*1029 net85
*1030 net86
*1031 net87
*1032 net88
*1033 net89
*1034 net9
*1035 net90
*1036 net91
*1037 net92
*1038 net93
*1039 net94
*1040 net95
*1041 net96
*1042 net97
*1043 net98
*1044 net99
*1045 nstate\[0\]
*1046 nstate\[1\]
*1047 spm32\.csa0\.hsum2
*1048 spm32\.csa0\.sc
*1049 spm32\.csa0\.sum
*1050 spm32\.csa0\.y
*1051 spm32\.genblk1\[10\]\.csa\.hsum2
*1052 spm32\.genblk1\[10\]\.csa\.sc
*1053 spm32\.genblk1\[10\]\.csa\.sum
*1054 spm32\.genblk1\[10\]\.csa\.y
*1055 spm32\.genblk1\[11\]\.csa\.hsum2
*1056 spm32\.genblk1\[11\]\.csa\.sc
*1057 spm32\.genblk1\[11\]\.csa\.y
*1058 spm32\.genblk1\[12\]\.csa\.hsum2
*1059 spm32\.genblk1\[12\]\.csa\.sc
*1060 spm32\.genblk1\[12\]\.csa\.y
*1061 spm32\.genblk1\[13\]\.csa\.hsum2
*1062 spm32\.genblk1\[13\]\.csa\.sc
*1063 spm32\.genblk1\[13\]\.csa\.y
*1064 spm32\.genblk1\[14\]\.csa\.hsum2
*1065 spm32\.genblk1\[14\]\.csa\.sc
*1066 spm32\.genblk1\[14\]\.csa\.y
*1067 spm32\.genblk1\[15\]\.csa\.hsum2
*1068 spm32\.genblk1\[15\]\.csa\.sc
*1069 spm32\.genblk1\[15\]\.csa\.y
*1070 spm32\.genblk1\[16\]\.csa\.hsum2
*1071 spm32\.genblk1\[16\]\.csa\.sc
*1072 spm32\.genblk1\[16\]\.csa\.y
*1073 spm32\.genblk1\[17\]\.csa\.hsum2
*1074 spm32\.genblk1\[17\]\.csa\.sc
*1075 spm32\.genblk1\[17\]\.csa\.y
*1076 spm32\.genblk1\[18\]\.csa\.hsum2
*1077 spm32\.genblk1\[18\]\.csa\.sc
*1078 spm32\.genblk1\[18\]\.csa\.y
*1079 spm32\.genblk1\[19\]\.csa\.hsum2
*1080 spm32\.genblk1\[19\]\.csa\.sc
*1081 spm32\.genblk1\[19\]\.csa\.y
*1082 spm32\.genblk1\[1\]\.csa\.hsum2
*1083 spm32\.genblk1\[1\]\.csa\.sc
*1084 spm32\.genblk1\[1\]\.csa\.y
*1085 spm32\.genblk1\[20\]\.csa\.hsum2
*1086 spm32\.genblk1\[20\]\.csa\.sc
*1087 spm32\.genblk1\[20\]\.csa\.y
*1088 spm32\.genblk1\[21\]\.csa\.hsum2
*1089 spm32\.genblk1\[21\]\.csa\.sc
*1090 spm32\.genblk1\[21\]\.csa\.y
*1091 spm32\.genblk1\[22\]\.csa\.hsum2
*1092 spm32\.genblk1\[22\]\.csa\.sc
*1093 spm32\.genblk1\[22\]\.csa\.y
*1094 spm32\.genblk1\[23\]\.csa\.hsum2
*1095 spm32\.genblk1\[23\]\.csa\.sc
*1096 spm32\.genblk1\[23\]\.csa\.y
*1097 spm32\.genblk1\[24\]\.csa\.hsum2
*1098 spm32\.genblk1\[24\]\.csa\.sc
*1099 spm32\.genblk1\[24\]\.csa\.y
*1100 spm32\.genblk1\[25\]\.csa\.hsum2
*1101 spm32\.genblk1\[25\]\.csa\.sc
*1102 spm32\.genblk1\[25\]\.csa\.y
*1103 spm32\.genblk1\[26\]\.csa\.hsum2
*1104 spm32\.genblk1\[26\]\.csa\.sc
*1105 spm32\.genblk1\[26\]\.csa\.y
*1106 spm32\.genblk1\[27\]\.csa\.hsum2
*1107 spm32\.genblk1\[27\]\.csa\.sc
*1108 spm32\.genblk1\[27\]\.csa\.y
*1109 spm32\.genblk1\[28\]\.csa\.hsum2
*1110 spm32\.genblk1\[28\]\.csa\.sc
*1111 spm32\.genblk1\[28\]\.csa\.y
*1112 spm32\.genblk1\[29\]\.csa\.hsum2
*1113 spm32\.genblk1\[29\]\.csa\.sc
*1114 spm32\.genblk1\[29\]\.csa\.y
*1115 spm32\.genblk1\[2\]\.csa\.hsum2
*1116 spm32\.genblk1\[2\]\.csa\.sc
*1117 spm32\.genblk1\[2\]\.csa\.y
*1118 spm32\.genblk1\[30\]\.csa\.hsum2
*1119 spm32\.genblk1\[30\]\.csa\.sc
*1120 spm32\.genblk1\[30\]\.csa\.y
*1121 spm32\.genblk1\[3\]\.csa\.hsum2
*1122 spm32\.genblk1\[3\]\.csa\.sc
*1123 spm32\.genblk1\[3\]\.csa\.y
*1124 spm32\.genblk1\[4\]\.csa\.hsum2
*1125 spm32\.genblk1\[4\]\.csa\.sc
*1126 spm32\.genblk1\[4\]\.csa\.y
*1127 spm32\.genblk1\[5\]\.csa\.hsum2
*1128 spm32\.genblk1\[5\]\.csa\.sc
*1129 spm32\.genblk1\[5\]\.csa\.y
*1130 spm32\.genblk1\[6\]\.csa\.hsum2
*1131 spm32\.genblk1\[6\]\.csa\.sc
*1132 spm32\.genblk1\[6\]\.csa\.y
*1133 spm32\.genblk1\[7\]\.csa\.hsum2
*1134 spm32\.genblk1\[7\]\.csa\.sc
*1135 spm32\.genblk1\[7\]\.csa\.y
*1136 spm32\.genblk1\[8\]\.csa\.hsum2
*1137 spm32\.genblk1\[8\]\.csa\.sc
*1138 spm32\.genblk1\[8\]\.csa\.y
*1139 spm32\.genblk1\[9\]\.csa\.hsum2
*1140 spm32\.genblk1\[9\]\.csa\.sc
*1141 spm32\.tcmp\.z
*1142 state\[0\]
*1143 state\[1\]
*1144 FILLER_0_0_106
*1145 FILLER_0_0_113
*1146 FILLER_0_0_119
*1147 FILLER_0_0_124
*1148 FILLER_0_0_183
*1149 FILLER_0_0_209
*1150 FILLER_0_0_244
*1151 FILLER_0_0_253
*1152 FILLER_0_0_85
*1153 FILLER_0_0_97
*1154 FILLER_0_10_104
*1155 FILLER_0_10_120
*1156 FILLER_0_10_127
*1157 FILLER_0_10_139
*1158 FILLER_0_10_141
*1159 FILLER_0_10_153
*1160 FILLER_0_10_165
*1161 FILLER_0_10_173
*1162 FILLER_0_10_183
*1163 FILLER_0_10_195
*1164 FILLER_0_10_197
*1165 FILLER_0_10_205
*1166 FILLER_0_10_224
*1167 FILLER_0_10_29
*1168 FILLER_0_10_6
*1169 FILLER_0_10_65
*1170 FILLER_0_10_91
*1171 FILLER_0_11_110
*1172 FILLER_0_11_128
*1173 FILLER_0_11_140
*1174 FILLER_0_11_152
*1175 FILLER_0_11_164
*1176 FILLER_0_11_169
*1177 FILLER_0_11_181
*1178 FILLER_0_11_193
*1179 FILLER_0_11_205
*1180 FILLER_0_11_219
*1181 FILLER_0_11_23
*1182 FILLER_0_11_35
*1183 FILLER_0_11_6
*1184 FILLER_0_11_71
*1185 FILLER_0_11_83
*1186 FILLER_0_11_98
*1187 FILLER_0_12_123
*1188 FILLER_0_12_139
*1189 FILLER_0_12_141
*1190 FILLER_0_12_153
*1191 FILLER_0_12_17
*1192 FILLER_0_12_178
*1193 FILLER_0_12_190
*1194 FILLER_0_12_208
*1195 FILLER_0_12_216
*1196 FILLER_0_12_27
*1197 FILLER_0_12_34
*1198 FILLER_0_12_42
*1199 FILLER_0_12_63
*1200 FILLER_0_12_75
*1201 FILLER_0_12_80
*1202 FILLER_0_12_85
*1203 FILLER_0_12_9
*1204 FILLER_0_13_109
*1205 FILLER_0_13_121
*1206 FILLER_0_13_153
*1207 FILLER_0_13_165
*1208 FILLER_0_13_17
*1209 FILLER_0_13_182
*1210 FILLER_0_13_194
*1211 FILLER_0_13_206
*1212 FILLER_0_13_218
*1213 FILLER_0_13_51
*1214 FILLER_0_13_55
*1215 FILLER_0_13_57
*1216 FILLER_0_13_6
*1217 FILLER_0_13_69
*1218 FILLER_0_14_149
*1219 FILLER_0_14_161
*1220 FILLER_0_14_173
*1221 FILLER_0_14_185
*1222 FILLER_0_14_193
*1223 FILLER_0_14_197
*1224 FILLER_0_14_209
*1225 FILLER_0_14_217
*1226 FILLER_0_14_250
*1227 FILLER_0_14_26
*1228 FILLER_0_14_60
*1229 FILLER_0_14_64
*1230 FILLER_0_14_72
*1231 FILLER_0_14_77
*1232 FILLER_0_14_85
*1233 FILLER_0_15_108
*1234 FILLER_0_15_113
*1235 FILLER_0_15_139
*1236 FILLER_0_15_155
*1237 FILLER_0_15_167
*1238 FILLER_0_15_169
*1239 FILLER_0_15_181
*1240 FILLER_0_15_193
*1241 FILLER_0_15_205
*1242 FILLER_0_15_209
*1243 FILLER_0_15_218
*1244 FILLER_0_15_245
*1245 FILLER_0_15_3
*1246 FILLER_0_15_45
*1247 FILLER_0_15_54
*1248 FILLER_0_15_62
*1249 FILLER_0_15_84
*1250 FILLER_0_16_109
*1251 FILLER_0_16_121
*1252 FILLER_0_16_125
*1253 FILLER_0_16_137
*1254 FILLER_0_16_141
*1255 FILLER_0_16_153
*1256 FILLER_0_16_165
*1257 FILLER_0_16_177
*1258 FILLER_0_16_189
*1259 FILLER_0_16_195
*1260 FILLER_0_16_197
*1261 FILLER_0_16_209
*1262 FILLER_0_16_221
*1263 FILLER_0_16_233
*1264 FILLER_0_16_248
*1265 FILLER_0_16_29
*1266 FILLER_0_16_47
*1267 FILLER_0_16_82
*1268 FILLER_0_16_88
*1269 FILLER_0_17_101
*1270 FILLER_0_17_109
*1271 FILLER_0_17_113
*1272 FILLER_0_17_125
*1273 FILLER_0_17_137
*1274 FILLER_0_17_149
*1275 FILLER_0_17_161
*1276 FILLER_0_17_167
*1277 FILLER_0_17_169
*1278 FILLER_0_17_181
*1279 FILLER_0_17_193
*1280 FILLER_0_17_205
*1281 FILLER_0_17_217
*1282 FILLER_0_17_223
*1283 FILLER_0_17_225
*1284 FILLER_0_17_236
*1285 FILLER_0_17_240
*1286 FILLER_0_17_271
*1287 FILLER_0_17_6
*1288 FILLER_0_17_77
*1289 FILLER_0_17_89
*1290 FILLER_0_17_93
*1291 FILLER_0_18_109
*1292 FILLER_0_18_121
*1293 FILLER_0_18_133
*1294 FILLER_0_18_139
*1295 FILLER_0_18_141
*1296 FILLER_0_18_153
*1297 FILLER_0_18_165
*1298 FILLER_0_18_177
*1299 FILLER_0_18_18
*1300 FILLER_0_18_189
*1301 FILLER_0_18_195
*1302 FILLER_0_18_197
*1303 FILLER_0_18_209
*1304 FILLER_0_18_22
*1305 FILLER_0_18_221
*1306 FILLER_0_18_243
*1307 FILLER_0_18_3
*1308 FILLER_0_18_40
*1309 FILLER_0_18_65
*1310 FILLER_0_18_77
*1311 FILLER_0_18_83
*1312 FILLER_0_18_85
*1313 FILLER_0_18_9
*1314 FILLER_0_18_97
*1315 FILLER_0_19_101
*1316 FILLER_0_19_109
*1317 FILLER_0_19_113
*1318 FILLER_0_19_125
*1319 FILLER_0_19_137
*1320 FILLER_0_19_149
*1321 FILLER_0_19_161
*1322 FILLER_0_19_167
*1323 FILLER_0_19_169
*1324 FILLER_0_19_18
*1325 FILLER_0_19_181
*1326 FILLER_0_19_193
*1327 FILLER_0_19_205
*1328 FILLER_0_19_217
*1329 FILLER_0_19_223
*1330 FILLER_0_19_225
*1331 FILLER_0_19_240
*1332 FILLER_0_19_249
*1333 FILLER_0_19_27
*1334 FILLER_0_19_39
*1335 FILLER_0_19_51
*1336 FILLER_0_19_55
*1337 FILLER_0_19_6
*1338 FILLER_0_19_65
*1339 FILLER_0_19_77
*1340 FILLER_0_19_89
*1341 FILLER_0_1_137
*1342 FILLER_0_1_181
*1343 FILLER_0_1_252
*1344 FILLER_0_1_27
*1345 FILLER_0_1_46
*1346 FILLER_0_1_55
*1347 FILLER_0_1_6
*1348 FILLER_0_1_66
*1349 FILLER_0_20_100
*1350 FILLER_0_20_112
*1351 FILLER_0_20_124
*1352 FILLER_0_20_13
*1353 FILLER_0_20_136
*1354 FILLER_0_20_141
*1355 FILLER_0_20_153
*1356 FILLER_0_20_165
*1357 FILLER_0_20_177
*1358 FILLER_0_20_189
*1359 FILLER_0_20_195
*1360 FILLER_0_20_197
*1361 FILLER_0_20_209
*1362 FILLER_0_20_217
*1363 FILLER_0_20_250
*1364 FILLER_0_20_35
*1365 FILLER_0_20_47
*1366 FILLER_0_20_59
*1367 FILLER_0_20_71
*1368 FILLER_0_20_77
*1369 FILLER_0_20_82
*1370 FILLER_0_20_88
*1371 FILLER_0_20_9
*1372 FILLER_0_21_105
*1373 FILLER_0_21_113
*1374 FILLER_0_21_125
*1375 FILLER_0_21_137
*1376 FILLER_0_21_149
*1377 FILLER_0_21_161
*1378 FILLER_0_21_167
*1379 FILLER_0_21_169
*1380 FILLER_0_21_181
*1381 FILLER_0_21_193
*1382 FILLER_0_21_205
*1383 FILLER_0_21_217
*1384 FILLER_0_21_223
*1385 FILLER_0_21_225
*1386 FILLER_0_21_231
*1387 FILLER_0_21_271
*1388 FILLER_0_21_6
*1389 FILLER_0_21_60
*1390 FILLER_0_21_68
*1391 FILLER_0_21_97
*1392 FILLER_0_22_100
*1393 FILLER_0_22_112
*1394 FILLER_0_22_124
*1395 FILLER_0_22_136
*1396 FILLER_0_22_141
*1397 FILLER_0_22_153
*1398 FILLER_0_22_165
*1399 FILLER_0_22_177
*1400 FILLER_0_22_18
*1401 FILLER_0_22_189
*1402 FILLER_0_22_195
*1403 FILLER_0_22_197
*1404 FILLER_0_22_209
*1405 FILLER_0_22_221
*1406 FILLER_0_22_236
*1407 FILLER_0_22_250
*1408 FILLER_0_22_3
*1409 FILLER_0_22_34
*1410 FILLER_0_22_44
*1411 FILLER_0_22_48
*1412 FILLER_0_22_55
*1413 FILLER_0_22_65
*1414 FILLER_0_22_73
*1415 FILLER_0_22_83
*1416 FILLER_0_22_85
*1417 FILLER_0_22_91
*1418 FILLER_0_23_102
*1419 FILLER_0_23_110
*1420 FILLER_0_23_113
*1421 FILLER_0_23_125
*1422 FILLER_0_23_137
*1423 FILLER_0_23_160
*1424 FILLER_0_23_164
*1425 FILLER_0_23_169
*1426 FILLER_0_23_181
*1427 FILLER_0_23_193
*1428 FILLER_0_23_205
*1429 FILLER_0_23_213
*1430 FILLER_0_23_223
*1431 FILLER_0_23_233
*1432 FILLER_0_23_249
*1433 FILLER_0_23_263
*1434 FILLER_0_23_3
*1435 FILLER_0_23_30
*1436 FILLER_0_23_35
*1437 FILLER_0_23_65
*1438 FILLER_0_23_9
*1439 FILLER_0_23_90
*1440 FILLER_0_24_109
*1441 FILLER_0_24_121
*1442 FILLER_0_24_133
*1443 FILLER_0_24_139
*1444 FILLER_0_24_14
*1445 FILLER_0_24_141
*1446 FILLER_0_24_149
*1447 FILLER_0_24_171
*1448 FILLER_0_24_18
*1449 FILLER_0_24_183
*1450 FILLER_0_24_195
*1451 FILLER_0_24_205
*1452 FILLER_0_24_238
*1453 FILLER_0_24_251
*1454 FILLER_0_24_27
*1455 FILLER_0_24_29
*1456 FILLER_0_24_41
*1457 FILLER_0_24_46
*1458 FILLER_0_24_6
*1459 FILLER_0_24_79
*1460 FILLER_0_24_83
*1461 FILLER_0_24_85
*1462 FILLER_0_24_97
*1463 FILLER_0_25_107
*1464 FILLER_0_25_111
*1465 FILLER_0_25_136
*1466 FILLER_0_25_155
*1467 FILLER_0_25_167
*1468 FILLER_0_25_169
*1469 FILLER_0_25_181
*1470 FILLER_0_25_193
*1471 FILLER_0_25_201
*1472 FILLER_0_25_205
*1473 FILLER_0_25_213
*1474 FILLER_0_25_38
*1475 FILLER_0_25_50
*1476 FILLER_0_25_6
*1477 FILLER_0_25_61
*1478 FILLER_0_25_83
*1479 FILLER_0_25_95
*1480 FILLER_0_26_100
*1481 FILLER_0_26_112
*1482 FILLER_0_26_15
*1483 FILLER_0_26_152
*1484 FILLER_0_26_164
*1485 FILLER_0_26_176
*1486 FILLER_0_26_183
*1487 FILLER_0_26_195
*1488 FILLER_0_26_197
*1489 FILLER_0_26_211
*1490 FILLER_0_26_224
*1491 FILLER_0_26_237
*1492 FILLER_0_26_247
*1493 FILLER_0_26_27
*1494 FILLER_0_26_37
*1495 FILLER_0_26_7
*1496 FILLER_0_26_88
*1497 FILLER_0_27_105
*1498 FILLER_0_27_111
*1499 FILLER_0_27_113
*1500 FILLER_0_27_142
*1501 FILLER_0_27_154
*1502 FILLER_0_27_158
*1503 FILLER_0_27_166
*1504 FILLER_0_27_169
*1505 FILLER_0_27_218
*1506 FILLER_0_27_32
*1507 FILLER_0_27_44
*1508 FILLER_0_27_49
*1509 FILLER_0_27_55
*1510 FILLER_0_27_57
*1511 FILLER_0_27_6
*1512 FILLER_0_27_69
*1513 FILLER_0_27_81
*1514 FILLER_0_27_93
*1515 FILLER_0_28_109
*1516 FILLER_0_28_121
*1517 FILLER_0_28_129
*1518 FILLER_0_28_137
*1519 FILLER_0_28_141
*1520 FILLER_0_28_149
*1521 FILLER_0_28_171
*1522 FILLER_0_28_183
*1523 FILLER_0_28_207
*1524 FILLER_0_28_219
*1525 FILLER_0_28_237
*1526 FILLER_0_28_26
*1527 FILLER_0_28_272
*1528 FILLER_0_28_3
*1529 FILLER_0_28_40
*1530 FILLER_0_28_52
*1531 FILLER_0_28_64
*1532 FILLER_0_28_76
*1533 FILLER_0_28_85
*1534 FILLER_0_28_97
*1535 FILLER_0_29_105
*1536 FILLER_0_29_111
*1537 FILLER_0_29_113
*1538 FILLER_0_29_119
*1539 FILLER_0_29_131
*1540 FILLER_0_29_158
*1541 FILLER_0_29_180
*1542 FILLER_0_29_188
*1543 FILLER_0_29_215
*1544 FILLER_0_29_223
*1545 FILLER_0_29_240
*1546 FILLER_0_29_46
*1547 FILLER_0_29_55
*1548 FILLER_0_29_57
*1549 FILLER_0_29_6
*1550 FILLER_0_29_69
*1551 FILLER_0_29_81
*1552 FILLER_0_29_93
*1553 FILLER_0_2_195
*1554 FILLER_0_2_27
*1555 FILLER_0_2_6
*1556 FILLER_0_2_85
*1557 FILLER_0_30_110
*1558 FILLER_0_30_139
*1559 FILLER_0_30_175
*1560 FILLER_0_30_183
*1561 FILLER_0_30_195
*1562 FILLER_0_30_205
*1563 FILLER_0_30_237
*1564 FILLER_0_30_27
*1565 FILLER_0_30_29
*1566 FILLER_0_30_59
*1567 FILLER_0_30_6
*1568 FILLER_0_30_71
*1569 FILLER_0_30_83
*1570 FILLER_0_30_85
*1571 FILLER_0_30_93
*1572 FILLER_0_31_110
*1573 FILLER_0_31_116
*1574 FILLER_0_31_153
*1575 FILLER_0_31_166
*1576 FILLER_0_31_172
*1577 FILLER_0_31_211
*1578 FILLER_0_31_215
*1579 FILLER_0_31_222
*1580 FILLER_0_31_26
*1581 FILLER_0_31_272
*1582 FILLER_0_31_34
*1583 FILLER_0_31_6
*1584 FILLER_0_31_68
*1585 FILLER_0_31_80
*1586 FILLER_0_31_86
*1587 FILLER_0_32_123
*1588 FILLER_0_32_166
*1589 FILLER_0_32_172
*1590 FILLER_0_32_180
*1591 FILLER_0_32_184
*1592 FILLER_0_32_188
*1593 FILLER_0_32_19
*1594 FILLER_0_32_197
*1595 FILLER_0_32_209
*1596 FILLER_0_32_219
*1597 FILLER_0_32_236
*1598 FILLER_0_32_253
*1599 FILLER_0_32_267
*1600 FILLER_0_32_37
*1601 FILLER_0_32_7
*1602 FILLER_0_32_79
*1603 FILLER_0_33_111
*1604 FILLER_0_33_113
*1605 FILLER_0_33_121
*1606 FILLER_0_33_130
*1607 FILLER_0_33_138
*1608 FILLER_0_33_15
*1609 FILLER_0_33_150
*1610 FILLER_0_33_159
*1611 FILLER_0_33_167
*1612 FILLER_0_33_169
*1613 FILLER_0_33_181
*1614 FILLER_0_33_185
*1615 FILLER_0_33_197
*1616 FILLER_0_33_222
*1617 FILLER_0_33_225
*1618 FILLER_0_33_241
*1619 FILLER_0_33_262
*1620 FILLER_0_33_272
*1621 FILLER_0_33_3
*1622 FILLER_0_33_37
*1623 FILLER_0_33_55
*1624 FILLER_0_33_57
*1625 FILLER_0_34_111
*1626 FILLER_0_34_123
*1627 FILLER_0_34_135
*1628 FILLER_0_34_139
*1629 FILLER_0_34_141
*1630 FILLER_0_34_145
*1631 FILLER_0_34_166
*1632 FILLER_0_34_178
*1633 FILLER_0_34_182
*1634 FILLER_0_34_194
*1635 FILLER_0_34_21
*1636 FILLER_0_34_243
*1637 FILLER_0_34_25
*1638 FILLER_0_34_32
*1639 FILLER_0_34_50
*1640 FILLER_0_34_57
*1641 FILLER_0_34_6
*1642 FILLER_0_34_83
*1643 FILLER_0_34_88
*1644 FILLER_0_35_101
*1645 FILLER_0_35_109
*1646 FILLER_0_35_113
*1647 FILLER_0_35_136
*1648 FILLER_0_35_142
*1649 FILLER_0_35_169
*1650 FILLER_0_35_196
*1651 FILLER_0_35_204
*1652 FILLER_0_35_208
*1653 FILLER_0_35_216
*1654 FILLER_0_35_220
*1655 FILLER_0_35_228
*1656 FILLER_0_35_32
*1657 FILLER_0_35_44
*1658 FILLER_0_35_6
*1659 FILLER_0_35_77
*1660 FILLER_0_35_89
*1661 FILLER_0_36_107
*1662 FILLER_0_36_139
*1663 FILLER_0_36_14
*1664 FILLER_0_36_141
*1665 FILLER_0_36_172
*1666 FILLER_0_36_20
*1667 FILLER_0_36_213
*1668 FILLER_0_36_250
*1669 FILLER_0_36_45
*1670 FILLER_0_36_53
*1671 FILLER_0_36_6
*1672 FILLER_0_36_63
*1673 FILLER_0_36_75
*1674 FILLER_0_36_83
*1675 FILLER_0_36_85
*1676 FILLER_0_37_104
*1677 FILLER_0_37_113
*1678 FILLER_0_37_137
*1679 FILLER_0_37_145
*1680 FILLER_0_37_149
*1681 FILLER_0_37_155
*1682 FILLER_0_37_162
*1683 FILLER_0_37_169
*1684 FILLER_0_37_199
*1685 FILLER_0_37_205
*1686 FILLER_0_37_216
*1687 FILLER_0_37_228
*1688 FILLER_0_37_271
*1689 FILLER_0_37_44
*1690 FILLER_0_37_48
*1691 FILLER_0_37_77
*1692 FILLER_0_37_83
*1693 FILLER_0_38_100
*1694 FILLER_0_38_129
*1695 FILLER_0_38_138
*1696 FILLER_0_38_149
*1697 FILLER_0_38_161
*1698 FILLER_0_38_173
*1699 FILLER_0_38_185
*1700 FILLER_0_38_193
*1701 FILLER_0_38_197
*1702 FILLER_0_38_205
*1703 FILLER_0_38_232
*1704 FILLER_0_38_3
*1705 FILLER_0_38_32
*1706 FILLER_0_38_44
*1707 FILLER_0_38_56
*1708 FILLER_0_38_68
*1709 FILLER_0_38_7
*1710 FILLER_0_38_92
*1711 FILLER_0_38_96
*1712 FILLER_0_39_109
*1713 FILLER_0_39_113
*1714 FILLER_0_39_120
*1715 FILLER_0_39_128
*1716 FILLER_0_39_132
*1717 FILLER_0_39_144
*1718 FILLER_0_39_15
*1719 FILLER_0_39_156
*1720 FILLER_0_39_162
*1721 FILLER_0_39_166
*1722 FILLER_0_39_169
*1723 FILLER_0_39_177
*1724 FILLER_0_39_192
*1725 FILLER_0_39_204
*1726 FILLER_0_39_215
*1727 FILLER_0_39_219
*1728 FILLER_0_39_223
*1729 FILLER_0_39_3
*1730 FILLER_0_39_34
*1731 FILLER_0_39_46
*1732 FILLER_0_39_54
*1733 FILLER_0_39_77
*1734 FILLER_0_3_106
*1735 FILLER_0_3_121
*1736 FILLER_0_3_163
*1737 FILLER_0_3_169
*1738 FILLER_0_3_241
*1739 FILLER_0_3_271
*1740 FILLER_0_3_29
*1741 FILLER_0_3_50
*1742 FILLER_0_3_57
*1743 FILLER_0_3_6
*1744 FILLER_0_40_102
*1745 FILLER_0_40_114
*1746 FILLER_0_40_126
*1747 FILLER_0_40_132
*1748 FILLER_0_40_136
*1749 FILLER_0_40_144
*1750 FILLER_0_40_150
*1751 FILLER_0_40_193
*1752 FILLER_0_40_197
*1753 FILLER_0_40_236
*1754 FILLER_0_40_272
*1755 FILLER_0_40_29
*1756 FILLER_0_40_3
*1757 FILLER_0_40_42
*1758 FILLER_0_40_54
*1759 FILLER_0_40_60
*1760 FILLER_0_40_64
*1761 FILLER_0_40_7
*1762 FILLER_0_40_76
*1763 FILLER_0_40_85
*1764 FILLER_0_40_89
*1765 FILLER_0_41_107
*1766 FILLER_0_41_149
*1767 FILLER_0_41_157
*1768 FILLER_0_41_165
*1769 FILLER_0_41_180
*1770 FILLER_0_41_198
*1771 FILLER_0_41_20
*1772 FILLER_0_41_228
*1773 FILLER_0_41_44
*1774 FILLER_0_41_6
*1775 FILLER_0_41_64
*1776 FILLER_0_41_74
*1777 FILLER_0_41_78
*1778 FILLER_0_42_14
*1779 FILLER_0_42_167
*1780 FILLER_0_42_173
*1781 FILLER_0_42_194
*1782 FILLER_0_42_20